Circuit: * D:\Users\seth\Documents\Git\power-filter\ltspice\power-filter.asc

c2: Increased Cpar to 1e-14
Per .tran options, skipping operating point for transient analysis.
.step cap=0
.step cap=0.001

Date: Tue Sep 24 08:00:31 2024
Total elapsed time: 6.108 seconds.

tnom = 27
temp = 27
method = modified trap
totiter = 77265
traniter = 77265
tranpoints = 38582
accept = 24154
rejected = 14428
matrix size = 74
fillins = 94
solver = Alternate
Avg thread counts: 3.0/3.1/1.1/1.1
Matrix Compiler1: 22.11 KB object code size  4.2/3.4/[3.4]
Matrix Compiler2: 11.26 KB object code size  1.6/1.7/[1.5]

