Circuit: * D:\Users\seth\Documents\Git\power-filter\ltspice\power-filter.asc

c2: Increased Cpar to 1e-14
Per .tran options, skipping operating point for transient analysis.
.step freq=1
.step freq=10
.step freq=60
.step freq=1000
.step freq=10000

Date: Sat Aug 31 12:48:13 2024
Total elapsed time: 40.425 seconds.

tnom = 27
temp = 27
method = modified trap
totiter = 800214
traniter = 800214
tranpoints = 400080
accept = 240220
rejected = 159860
matrix size = 74
fillins = 94
solver = Alternate
Avg thread counts: 3.0/2.0/1.0/1.0
Matrix Compiler1:     933 opcodes  5.1/[3.3]/3.7
Matrix Compiler2: 11.26 KB object code size  1.9/1.7/[1.7]

